LMGP01010005
  ChemPy            3D                             0

 53 52  0  0  1  0  0  0  0  0999 V2000
   14.4559   16.2459    0.0000 N   0  3  0  0  0  0  0  0  0  0  0  0
   14.0612   10.8910    0.0000 C   0  0  0  0  0  0  0  0  0  0  0  0
   13.6510   10.1786    0.0000 C   0  0  0  0  0  0  0  0  0  0  0  0
   13.6510    8.7534    0.0000 C   0  0  0  0  0  0  0  0  0  0  0  0
   14.0612    8.0410    0.0000 C   0  0  0  0  0  0  0  0  0  0  0  0
   13.6510    7.3285    0.0000 C   0  0  0  0  0  0  0  0  0  0  0  0
   14.0612    6.6159    0.0000 C   0  0  0  0  0  0  0  0  0  0  0  0
   13.6510    5.9034    0.0000 C   0  0  0  0  0  0  0  0  0  0  0  0
   14.0612    5.1908    0.0000 C   0  0  0  0  0  0  0  0  0  0  0  0
   13.6510    4.4784    0.0000 C   0  0  0  0  0  0  0  0  0  0  0  0
   14.0612    3.7659    0.0000 C   0  0  0  0  0  0  0  0  0  0  0  0
   13.6510    3.0533    0.0000 C   0  0  0  0  0  0  0  0  0  0  0  0
   14.0612    2.3408    0.0000 C   0  0  0  0  0  0  0  0  0  0  0  0
   13.6510    1.6283    0.0000 C   0  0  0  0  0  0  0  0  0  0  0  0
   14.0612    0.9158    0.0000 C   0  0  0  0  0  0  0  0  0  0  0  0
   13.6497    0.2033    0.0000 C   0  0  0  0  0  0  0  0  0  0  0  0
   14.0612   -0.5094    0.0000 C   0  0  0  0  0  0  0  0  0  0  0  0
   13.6497   -1.2219    0.0000 C   0  0  0  0  0  0  0  0  0  0  0  0
   14.0612   -1.9346    0.0000 C   0  0  0  0  0  0  0  0  0  0  0  0
   13.6497   11.6036    0.0000 C   0  0  0  0  0  0  0  0  0  0  0  0
   14.4559   14.8205    0.0000 C   0  0  0  0  0  0  0  0  0  0  0  0
   14.0445   15.5333    0.0000 C   0  0  0  0  0  0  0  0  0  0  0  0
   14.0445   16.9585    0.0000 C   0  0  0  0  0  0  0  0  0  0  0  0
   15.2787   16.2459    0.0000 C   0  0  0  0  0  0  0  0  0  0  0  0
   14.8673   16.9585    0.0000 C   0  0  0  0  0  0  0  0  0  0  0  0
   15.1948    9.7327    0.0000 C   0  0  0  0  0  0  0  0  0  0  0  0
   14.7832    9.0204    0.0000 C   0  0  0  0  0  0  0  0  0  0  0  0
   15.1948    8.3078    0.0000 C   0  0  0  0  0  0  0  0  0  0  0  0
   14.7832    7.5954    0.0000 C   0  0  0  0  0  0  0  0  0  0  0  0
   15.1948    6.8827    0.0000 C   0  0  0  0  0  0  0  0  0  0  0  0
   14.7832    6.1702    0.0000 C   0  0  0  0  0  0  0  0  0  0  0  0
   15.1948    5.4576    0.0000 C   0  0  0  0  0  0  0  0  0  0  0  0
   14.7832    4.7452    0.0000 C   0  0  0  0  0  0  0  0  0  0  0  0
   15.1948    4.0326    0.0000 C   0  0  0  0  0  0  0  0  0  0  0  0
   15.1948    3.2098    0.0000 C   0  0  0  0  0  0  0  0  0  0  0  0
   14.7834    2.4971    0.0000 C   0  0  0  0  0  0  0  0  0  0  0  0
   15.1948    1.7845    0.0000 C   0  0  0  0  0  0  0  0  0  0  0  0
   14.7834    1.0718    0.0000 C   0  0  0  0  0  0  0  0  0  0  0  0
   15.1948    0.3593    0.0000 C   0  0  0  0  0  0  0  0  0  0  0  0
   14.7834   -0.3533    0.0000 C   0  0  0  0  0  0  0  0  0  0  0  0
   15.1948   -1.0660    0.0000 C   0  0  0  0  0  0  0  0  0  0  0  0
   14.7834   -1.7787    0.0000 C   0  0  0  0  0  0  0  0  0  0  0  0
   15.1948   -2.4913    0.0000 C   0  0  0  0  0  0  0  0  0  0  0  0
   14.0612    9.4659    0.0000 O   0  0  0  0  0  0  0  0  0  0  0  0
   12.8273    8.7534    0.0000 O   0  0  0  0  0  0  0  0  0  0  0  0
   14.7737   10.4792    0.0000 O   0  0  0  0  0  0  0  0  0  0  0  0
   14.0612   12.3162    0.0000 O   0  0  0  0  0  0  0  0  0  0  0  0
   14.0445   14.1080    0.0000 O   0  0  0  0  0  0  0  0  0  0  0  0
   14.3682   12.9948    0.0000 O   0  5  0  0  0  0  0  0  0  0  0  0
   12.9889   13.3579    0.0000 O   0  0  0  0  0  0  0  0  0  0  0  0
   16.0187    9.7327    0.0000 O   0  0  0  0  0  0  0  0  0  0  0  0
   13.7389   13.3579    0.0000 P   0  0  0  0  0  0  0  0  0  0  0  0
   14.7737   11.3027    0.0000 H   0  0  0  0  0  0  0  0  0  0  0  0
  1 22  1  0  0  0  0
  1 24  1  0  0  0  0
  1 25  1  0  0  0  0
  2  3  1  0  0  0  0
  2 46  1  6  0  0  0
  2 53  1  1  0  0  0
  3 44  1  0  0  0  0
  4  5  1  0  0  0  0
  4 45  2  0  0  0  0
  5  6  1  0  0  0  0
  6  7  1  0  0  0  0
  7  8  1  0  0  0  0
  8  9  1  0  0  0  0
  9 10  1  0  0  0  0
 10 11  1  0  0  0  0
 11 12  1  0  0  0  0
 12 13  1  0  0  0  0
 13 14  1  0  0  0  0
 14 15  1  0  0  0  0
 15 16  1  0  0  0  0
 16 17  1  0  0  0  0
 17 18  1  0  0  0  0
 18 19  1  0  0  0  0
 20  2  1  0  0  0  0
 21 48  1  0  0  0  0
 22 21  1  0  0  0  0
 23  1  1  0  0  0  0
 26 27  1  0  0  0  0
 26 46  1  0  0  0  0
 26 51  2  0  0  0  0
 27 28  1  0  0  0  0
 28 29  1  0  0  0  0
 29 30  1  0  0  0  0
 30 31  1  0  0  0  0
 31 32  1  0  0  0  0
 32 33  1  0  0  0  0
 33 34  1  0  0  0  0
 34 35  2  0  0  0  0
 35 36  1  0  0  0  0
 37 36  1  0  0  0  0
 38 37  1  0  0  0  0
 39 38  1  0  0  0  0
 40 39  1  0  0  0  0
 41 40  1  0  0  0  0
 42 41  1  0  0  0  0
 43 42  1  0  0  0  0
 44  4  1  0  0  0  0
 47 20  1  0  0  0  0
 47 52  1  0  0  0  0
 52 48  1  0  0  0  0
 52 49  1  0  0  0  0
 52 50  2  0  0  0  0
M  CHG  2   1   1  49  -1
M  END
